LAMMPS (17 Nov 2016)
#Optional input for intel package
#package intel 0 mode mixed balance -1
#package omp 0
#suffix intel
#processors * * * grid numa

variable 	thermo_print equal 200
variable	total_step equal 200*10
units		real
boundary	p p p
neighbor        2.0 bin
neigh_modify    delay 10 every 1
atom_style	full
bond_style      harmonic
angle_style     harmonic
dihedral_style  harmonic
pair_style      lj/cut/coul/long 10.0
pair_modify     mix arithmetic
kspace_style    pppm 1e-4
read_data       ../data.begin
  orthogonal box = (0.0498083 0.0498083 0.0498083) to (208.651 208.651 208.651)
  reading atoms ...
  744000 atoms
  reading velocities ...
  744000 velocities
  scanning bonds ...
  reading bonds ...
  648000 bonds
replicate	2 2 2
  orthogonal box = (0.0498083 0.0498083 0.0498083) to (417.253 417.253 417.253)
  5952000 atoms
  5184000 bonds
fix             microcanonical all nve
timestep	1
thermo          200
restart		2000 medium
run             2000
PPPM initialization ...
  G vector (1/distance) = 0.263924
  grid = 216 216 216
  stencil order = 5
  estimated absolute RMS force accuracy = 0.0346605
  estimated relative force accuracy = 0.000104379
  3d grid and FFT values/proc = 160003 139968
  1 neighbor list requests
  update every 1 steps, delay 10 steps, check yes
Step Temp E_pair E_mol TotEng Press
0    299.89378    -97283939    2137399.5    -89825891     40.18268
Averages over the last 6 of 11 rows, steps 1000 to 2000:
Temp E_pair E_mol TotEng Press
300.121 -9.7303e+07 2.15233e+06 -8.9826e+07 -4.54461
Loop time of 1147.73 on 96 procs for 2000 steps with 5952000 atoms

write_data	data.medium
PPPM initialization ...
  G vector (1/distance) = 0.263924
  grid = 216 216 216
  stencil order = 5
  estimated absolute RMS force accuracy = 0.0346605
  estimated relative force accuracy = 0.000104379
  3d grid and FFT values/proc = 160003 139968
