LAMMPS (17 Nov 2016)
#Optional input for intel package
#package intel 0 mode mixed balance -1
#package omp 0
#suffix intel
#processors * * * grid numa

variable 	thermo_print equal 2000
variable	total_step equal 2000*10
units		real
boundary	p p p
neighbor        2.0 bin
neigh_modify    delay 10 every 1
atom_style	full
bond_style      harmonic
angle_style     harmonic
dihedral_style  harmonic
pair_style      lj/cut/coul/long 10.0
pair_modify     mix arithmetic
kspace_style    pppm 1e-4
read_data       ../data.begin
  orthogonal box = (0.0498083 0.0498083 0.0498083) to (208.651 208.651 208.651)
  reading atoms ...
  744000 atoms
  reading velocities ...
  744000 velocities
  scanning bonds ...
  reading bonds ...
  648000 bonds
fix		microcanonical all nve
timestep	1
thermo          2000
restart		20000 small
run             20000
PPPM initialization ...
  G vector (1/distance) = 0.263924
  grid = 108 108 108
  stencil order = 5
  estimated absolute RMS force accuracy = 0.0346605
  estimated relative force accuracy = 0.000104379
  3d grid and FFT values/proc = 28900 23328
  1 neighbor list requests
  update every 1 steps, delay 10 steps, check yes
Step Temp E_pair E_mol TotEng Press
0    299.89414    -12160492    267174.94    -11228236    40.182681
Averages over the last 6 of 11 rows, steps 10000 to 20000:
Temp E_pair E_mol TotEng Press
300.434 -1.21707e+07 276029 -1.12284e+07 -61.987
Loop time of 1465.07 on 96 procs for 20000 steps with 744000 atoms

write_data	data.small
PPPM initialization ...
  G vector (1/distance) = 0.263924
  grid = 108 108 108
  stencil order = 5
  estimated absolute RMS force accuracy = 0.0346605
  estimated relative force accuracy = 0.000104379
  3d grid and FFT values/proc = 28900 23328
